/*--------------------------------*- C++ -*----------------------------------*\
| =========                 |                                                 |
| \\      /  F ield         | OpenFOAM: The Open Source CFD Toolbox           |
|  \\    /   O peration     | Version:  2.4.0                                 |
|   \\  /    A nd           | Web:      www.OpenFOAM.org                      |
|    \\/     M anipulation  |                                                 |
\*---------------------------------------------------------------------------*/
FoamFile
{
    version     2.0;
    format      ascii;
    class       volScalarField;
    object      T;
}
// * * * * * * * * * * * * * * * * * * * * * * * * * * * * * * * * * * * * * //

dimensions      [0 0 0 1 0 0 0];

internalField   uniform 0;

boundaryField
{
    caraarriba
    {
        type            fixedValue;
        value           uniform 1;
    }
    caraizq
    {
        type            fixedValue;
        value           uniform 1;
    }
	carader
	{
        type            fixedValue;
        value           uniform 0;
    }
	caraabajo
	{
        type            fixedValue;
        value           uniform 0;
    }

	frontAndBack
    {
        type            empty;
    }
}

// ************************************************************************* //
