/*--------------------------------*- C++ -*----------------------------------*\
| =========                 |                                                 |
| \\      /  F ield         | OpenFOAM: The Open Source CFD Toolbox           |
|  \\    /   O peration     | Version:  2.4.0                                 |
|   \\  /    A nd           | Web:      www.OpenFOAM.org                      |
|    \\/     M anipulation  |                                                 |
\*---------------------------------------------------------------------------*/
FoamFile
{
    version     2.0;
    format      ascii;
    class       dictionary;
    location    "system";
    object      setFieldsDict;
}
// * * * * * * * * * * * * * * * * * * * * * * * * * * * * * * * * * * * * * //

defaultFieldValues ( volVectorFieldValue U ( 0 0 -1 ) volScalarFieldValue T 0.0 );

regions         ( boxToCell { box ( -5 -1 -1 ) ( -4.9 1 1 ) ; fieldValues ( volScalarFieldValue T 0.0 ) ; } );


// ************************************************************************* //
